test/test_files/input_tests/raw_v26_fixed_transformer.raw
0,    100.00, 26, 0, 1, 60.00
GridDyn PSS/E RAW v26 fixed transformer regression
v26 fixed transformer tap fields must not become terminal shunts.
1,'SLACK',230.0000,3,     0.00,     0.00,  1,  1,1.000000,  0.0000, 1
2,'LOAD ',115.0000,1,     0.00,     0.00,  1,  1,1.000000,  0.0000, 1
0 /* END OF BUS DATA, BEGIN LOAD DATA
2,1,1,1,1,10.00,5.00,0,0,0,0,1
0 /* END OF LOAD DATA, BEGIN FIXED SHUNT DATA
0 /* END OF FIXED SHUNT DATA, BEGIN GENERATOR DATA
0 /* END OF GENERATOR DATA, BEGIN BRANCH DATA
1,2,'1 ',0.01000,0.10000,0.00000,100.00,100.00,100.00,1.03000,-5.00000,0.00000,0.00000,0,0,1,1,1.0
0 / END OF BRANCH DATA, BEGIN TRANSFORMER ADJUSTMENT DATA
0 / END OF TRANSFORMER ADJUSTMENT DATA, BEGIN AREA INTERCHANGE DATA
0 / END OF AREA INTERCHANGE DATA, BEGIN TWO-TERMINAL DC LINE DATA
0 / END OF TWO-TERMINAL DC LINE DATA, BEGIN SWITCHED SHUNT DATA
0 / END OF SWITCHED SHUNT DATA, BEGIN TRANSFORMER IMPEDNCE CORRECTION DATA
0 / END TRANSFORMER IMPEDANCE CORR DATA, BEGIN MULTI-TERMINAL DC LINE DATA
0 / END MULTI-TERMINAL DC LINE DATA, BEGIN MULTI-SECTION LINE GROUP DATA
0 / END MULTI-SECTION LINE GROUP DATA, BEGIN ZONE DATA
0 / END OF ZONE DATA, BEGIN INTER-AREA TRANSFER DATA
0 / END INTERAREA TRANSFER DATA, BEGIN OWNER DATA
0 / END OF OWNER DATA, BEGIN FACTS CONTROL DEVICE DATA
0 / END FACTS CONTROL DEVICE DATA
